Circuit: * U:\S6\App1\Dev\LTspice2\LTspice\S6eAPP1_probl_initiale.asc

Direct Newton iteration for .op point succeeded.

Date: Mon May 15 20:01:34 2023
Total elapsed time: 0.159 seconds.

tnom = 27
temp = 27
method = modified trap
totiter = 3915
traniter = 3905
tranpoints = 1817
accept = 1615
rejected = 202
matrix size = 30
fillins = 10
solver = Normal
Matrix Compiler1:     154 opcodes  0.5/[0.4]/1.3
Matrix Compiler2: off  [0.3]/0.6/0.8

