Circuit: * U:\S6\App1\Dev\LTspice\2.asc

.step vbe=0.6
.step vbe=0.601
.step vbe=0.602
.step vbe=0.603
.step vbe=0.604
.step vbe=0.605
.step vbe=0.606
.step vbe=0.607
.step vbe=0.608
.step vbe=0.609
.step vbe=0.61
.step vbe=0.611
.step vbe=0.612
.step vbe=0.613
.step vbe=0.614
.step vbe=0.615
.step vbe=0.616
.step vbe=0.617
.step vbe=0.618
.step vbe=0.619
.step vbe=0.62
.step vbe=0.621
.step vbe=0.622
.step vbe=0.623
.step vbe=0.624
.step vbe=0.625
.step vbe=0.626
.step vbe=0.627
.step vbe=0.628
.step vbe=0.629
.step vbe=0.63

Date: Mon May 15 15:14:24 2023
Total elapsed time: 0.871 seconds.

tnom = 27
temp = 27
method = trap
totiter = 62336
traniter = 0
tranpoints = 0
accept = 0
rejected = 0
matrix size = 16
fillins = 8
solver = Normal
Matrix Compiler1: 1.47 KB object code size  0.3/0.1/[0.1]
Matrix Compiler2: 1.45 KB object code size  0.1/0.2/[0.1]

