Circuit: * U:\S6\App1\Dev\LTspice\2.asc

.step vbe=0.6
.step vbe=0.61
.step vbe=0.62
.step vbe=0.63
.step vbe=0.64
.step vbe=0.65
.step vbe=0.66
.step vbe=0.67
.step vbe=0.68

Date: Mon May 15 18:35:09 2023
Total elapsed time: 0.207 seconds.

tnom = 27
temp = 27
method = trap
totiter = 3694
traniter = 0
tranpoints = 0
accept = 0
rejected = 0
matrix size = 16
fillins = 8
solver = Normal
Matrix Compiler1: 1.47 KB object code size  0.3/0.1/[0.1]
Matrix Compiler2: 1.45 KB object code size  0.1/0.2/[0.1]

