Circuit: * U:\S6\App1\Dev\LTspice\2.asc

.step vbe=-10
.step vbe=-9.9
.step vbe=-9.8
.step vbe=-9.7
.step vbe=-9.6
.step vbe=-9.5
.step vbe=-9.4
.step vbe=-9.3
.step vbe=-9.2
.step vbe=-9.1
.step vbe=-9
.step vbe=-8.9
.step vbe=-8.8
.step vbe=-8.7
.step vbe=-8.6
.step vbe=-8.5
.step vbe=-8.4
.step vbe=-8.3
.step vbe=-8.2
.step vbe=-8.1
.step vbe=-8

Date: Fri May 12 14:52:16 2023
Total elapsed time: 0.200 seconds.

tnom = 27
temp = 27
method = trap
totiter = 10673
traniter = 0
tranpoints = 0
accept = 0
rejected = 0
matrix size = 16
fillins = 0
solver = Normal
Matrix Compiler1: 986 bytes object code size  0.2/0.1/[0.1]
Matrix Compiler2: 1.31 KB object code size  0.1/0.2/[0.1]

