Circuit: * U:\S6\App1\Dev\LTspice\3.asc

WARNING: Node NC_01 is floating.

WARNING: Less than two connections to node N004.  This node is used by V3.
WARNING: Less than two connections to node NC_01.  This node is used by V3.
WARNING: Less than two connections to node TEST.  This node is used by R1.
Direct Newton iteration for .op point succeeded.

Date: Sun May 14 19:54:41 2023
Total elapsed time: 0.077 seconds.

tnom = 27
temp = 27
method = modified trap
totiter = 2607
traniter = 2598
tranpoints = 1300
accept = 1251
rejected = 49
matrix size = 20
fillins = 10
solver = Normal
Matrix Compiler1: 1.83 KB object code size  0.3/0.2/[0.1]
Matrix Compiler2: off  [0.1]/0.2/0.1

