Circuit: * U:\S6\App1\Dev\LTspice\3.asc

WARNING: Less than two connections to node NC_01.  This node is used by R7.
WARNING: Less than two connections to node NC_02.  This node is used by R8.
WARNING: Less than two connections to node TEST.  This node is used by R1.
Fatal Error: DC sweep: Source "vbe" not found
