Circuit: * U:\S6\App1\Dev\LTspice\circuit_total.asc

Direct Newton iteration for .op point succeeded.

Date: Tue May 16 01:52:21 2023
Total elapsed time: 0.558 seconds.

tnom = 27
temp = 27
method = modified trap
totiter = 38776
traniter = 38765
tranpoints = 14373
accept = 11222
rejected = 3151
matrix size = 30
fillins = 8
solver = Normal
Matrix Compiler1: 2.65 KB object code size  0.5/0.3/[0.2]
Matrix Compiler2: off  [0.2]/0.3/0.3

