Circuit: * U:\S6\App1\Dev\LTspice\droite de chagre_pmos_adl1107p.asc

WARNING: Node N005 is floating.

Vds: Missing value, assumed 0V @ DC
Vgs: Missing value, assumed 0V @ DC
.step vgs=2
.step vgs=2.5
.step vgs=3
.step vgs=3.5
.step vgs=4
.step vgs=4.5
.step vgs=5

Date: Thu May 11 16:16:08 2023
Total elapsed time: 0.140 seconds.

tnom = 27
temp = 27
method = trap
totiter = 1084
traniter = 0
tranpoints = 0
accept = 0
rejected = 0
matrix size = 15
fillins = 8
solver = Normal
Matrix Compiler1: 1.13 KB object code size  0.2/0.1/[0.1]
Matrix Compiler2: 1.23 KB object code size  0.1/0.1/[0.1]

