Circuit: * U:\S6\App1\Dev\LTspice\e1.asc

.step vbe=0.6
.step vbe=0.602
.step vbe=0.604
.step vbe=0.606
.step vbe=0.608
.step vbe=0.61
.step vbe=0.612
.step vbe=0.614
.step vbe=0.616
.step vbe=0.618
.step vbe=0.62
.step vbe=0.622
.step vbe=0.624
.step vbe=0.626
.step vbe=0.628
.step vbe=0.63

Date: Mon May 15 16:27:31 2023
Total elapsed time: 0.385 seconds.

tnom = 27
temp = 27
method = trap
totiter = 7440
traniter = 0
tranpoints = 0
accept = 0
rejected = 0
matrix size = 11
fillins = 0
solver = Normal
Matrix Compiler1: 404 bytes object code size  0.1/0.1/[0.0]
Matrix Compiler2: 779 bytes object code size  0.1/0.1/[0.1]

