Circuit: * U:\S6\App1\Dev\LTspice\Gummeling.asc

WARNING: Less than two connections to node VPP.  This node is used by V1.
WARNING: Less than two connections to node VMM.  This node is used by V2.

Date: Mon May 15 12:08:29 2023
Total elapsed time: 0.054 seconds.

tnom = 27
temp = 27
method = trap
totiter = 50
traniter = 0
tranpoints = 0
accept = 0
rejected = 0
matrix size = 10
fillins = 0
solver = Normal
Matrix Compiler1: 372 bytes object code size
Matrix Compiler2: 612 bytes object code size
