Circuit: * U:\S6\App1\Dev\LTspice\S6eAPP1_probl_initiale.asc

Direct Newton iteration for .op point succeeded.

Date: Mon May 08 15:42:58 2023
Total elapsed time: 0.169 seconds.

tnom = 27
temp = 27
method = trap
totiter = 14
traniter = 0
tranpoints = 0
accept = 0
rejected = 0
matrix size = 30
fillins = 10
solver = Normal
Matrix Compiler1:     154 opcodes
Matrix Compiler2: 2.91 KB object code size
