Circuit: * U:\S6\App1\Dev\LTspice\S6eAPP1_probl_initiale.asc

Direct Newton iteration for .op point succeeded.

Date: Mon May 15 20:47:27 2023
Total elapsed time: 0.370 seconds.

tnom = 27
temp = 27
method = modified trap
totiter = 2132
traniter = 2122
tranpoints = 1062
accept = 1056
rejected = 6
matrix size = 13
fillins = 0
solver = Normal
Matrix Compiler1: 504 bytes object code size  0.4/0.3/[0.3]
Matrix Compiler2: 951 bytes object code size  0.3/0.5/[0.3]

